@<TRIPOS>MOLECULE
LIG
    7     6     1     0     0
SMALL
resp


@<TRIPOS>ATOM
      1 O1           0.6910    -1.1410    -0.0000 o          1 LIG      -0.818800 
      2 O2           0.7930     1.0890    -0.0000 o          1 LIG      -0.818800 
      3 C1           0.2170    -0.0010     0.0000 c          1 LIG       0.805400
      4 C2          -1.3370     0.0500    -0.0000 c3         1 LIG      -0.102105
      5 H1          -1.7210    -0.4740    -0.8730 hc         1 LIG      -0.021898
      6 H2          -1.7210    -0.4740     0.8740 hc         1 LIG      -0.021898  
      7 H3          -1.7120     1.0690    -0.0010 hc         1 LIG      -0.021898  
@<TRIPOS>BOND
     1     1     3 1   
     2     2     3 1   
     3     3     4 1   
     4     4     5 1   
     5     4     6 1   
     6     4     7 1   
@<TRIPOS>SUBSTRUCTURE
     1 LIG         1 TEMP              0 ****  ****    0 ROOT
